13

C                     2.281169870000    -1.338389990000     0.000000000000
H                     4.056127410000    -2.323551310000     0.000000000000
C                     0.000000000000    -2.532774890000     0.000000000000
C                    -2.281169870000    -1.338389990000     0.000000000000
H                    -4.056127410000    -2.323551310000     0.000000000000
C                     2.281169870000     1.338389990000     0.000000000000
H                     4.056127410000     2.323551310000     0.000000000000
C                     0.000000000000     2.532774890000     0.000000000000
C                    -2.281169870000     1.338389990000     0.000000000000
H                    -4.056127400000     2.323551310000     0.000000000000
He                    0.000000000000     0.000000000000    -1.889726130000
He                    0.000000000000     0.000000000000     0.000000000000
He                    0.000000000000     0.000000000000     1.889726130000
