11

C         -0.69757       -0.98458       -0.87089
C          0.71399       -0.98718       -0.87943
C          1.15275        0.35444       -0.86802
C          0.01236        1.18621       -0.85243
C         -1.13121        0.35865       -0.85420
H          2.13483        0.67152       -0.87062
H          0.01432        2.21815       -0.84163
H         -1.71309        0.54147        0.02494
H         -1.73746        0.56421       -1.71158
H         -1.30574       -1.81832       -0.87596
H          1.31899       -1.82316       -0.89184
