10

C 1.2071431070 -0.7082454819 0.0000000000
H 2.1464101866 -1.2295704028 0.0000000000
C 0.0000000000 -1.3402867533 0.0000000000
C -1.2071431070 -0.7082454819 0.0000000000
H -2.1464101866 -1.2295704028 0.0000000000
C 1.2071431070 0.7082454819 0.0000000000
H 2.1464101866 1.2295704028 0.0000000000
C -0.0000000265 1.3402867525 0.0000000000
C -1.2071431065 0.7082454811 0.0000000000
H -2.1464101861 1.2295704020 0.0000000000
