12

C         0.0000000000    0.0000000000    1.6966539455
H         0.0000000000    0.0000000000    2.7947072779
C        -0.1449049845    1.2189357936    0.9982718328
H        -0.3793917736    2.1351091515    1.5574851380
C         0.0437987787    1.3005072778   -0.3605729354
C         0.2123453979    0.6770166409   -1.5841435244
H         0.5559396851    1.2261945394   -2.4693593757
C        -0.2123453979   -0.6770166409   -1.5841435244
H        -0.5559396851   -1.2261945394   -2.4693593757
C        -0.0437987787   -1.3005072778   -0.3605729354
C         0.1449049845   -1.2189357936    0.9982718328
H         0.3793917736   -2.1351091515    1.5574851380

