12

C         0.0000000000    0.0000000000    1.8100592588
H         0.0000000000    0.0000000000    2.9073961517
C         1.2121282641    0.0000000000    1.0267110520
H         2.2277046619    0.0000000000    1.4274159646
C         0.7626919982    0.0000000000   -0.2837966587
C         0.7225678536    0.0000000000   -1.7094752400
H         1.4745676648    0.0000000000   -2.5067032008
C        -0.7225678536    0.0000000000   -1.7094752400
H        -1.4745676648    0.0000000000   -2.5067032008
C        -0.7626919982    0.0000000000   -0.2837966587
C        -1.2121282641    0.0000000000    1.0267110520
H        -2.2277046619    0.0000000000    1.4274159646

