14

C    1.777216313800  -0.462507976300  -0.352361031600
C    1.664223080600   0.783524914400   0.337643794700
C    0.722405319200  -1.368614879300  -0.541089389000
C    0.462318710800   1.480261173800   0.535124168000
C   -0.547287759900  -1.240241714600   0.097645277100
C   -0.766851203900   1.120360044000  -0.094461459500
C   -1.599980677400  -1.483739143700   0.740476296400
C   -1.851232864300   1.165668059100  -0.728960487600
H    2.766240962800  -0.752673868000  -0.735563437900
H    2.586002830000   1.250704730400   0.713541133300
H    0.872231442000  -2.269902336400  -1.157235818700
H    0.448371160300   2.393936503100   1.151074199900
H   -2.514760692800  -1.647745673500   1.317073751700
H   -2.785028309900   1.158353688000  -1.298260344300
