14        

C -1.777216 -0.462508 -0.352361
C -1.664223  0.783525  0.337644
C -0.722405 -1.368615 -0.541089
C -0.462319  1.480261  0.535124
C  0.547288 -1.240242  0.097645
C  0.766851  1.120360 -0.094461
C  1.599981 -1.483739  0.740476
C  1.851233  1.165668 -0.728961
H -2.766241 -0.752674 -0.735563
H -2.586003  1.250705  0.713541
H -0.872231 -2.269902 -1.157236
H -0.448371  2.393936  1.151074
H  2.514761 -1.647746  1.317074
H  2.785028  1.158354 -1.298260
