12

C         1.3102281283   -0.5098220708   -0.0019182299
C         1.0966354875    0.8798270342   -0.0017926164
C        -0.2136841652    1.3896430843   -0.0016724401
C        -1.3103103191    0.5098587964   -0.0017089101
C        -1.0966882454   -0.8798050353   -0.0018830053
C         0.2136076947   -1.3896416700   -0.0019671004
H         2.3316246681   -0.9071784939   -0.0019226850
H         1.9514867214    1.5656244122   -0.0018435492
H        -0.3800541601    2.4729016929   -0.0015446068
H        -2.3317067339    0.9071869421   -0.0015596223
H        -1.9515274180   -1.5656271028   -0.0020001083
H         0.3799231981   -2.4729016430   -0.0020583567
