18

C         0.0000924798    1.3647663668    0.4362045771
H        -0.0001716459   -1.1516246242    1.5226122626
H         0.0001211666    1.1515423724    1.5226597413
C        -0.0001195851   -1.3647957590    0.4361466977
C         1.2685657686    0.7798217536   -0.2113871612
C        -1.2685180257    0.7800114123   -0.2112950293
C         1.2685115788   -0.7800121464   -0.2112873598
C        -1.2685854550   -0.7798226519   -0.2114344456
H         0.0001679395    2.4663130090    0.3368816246
H        -0.0001926386   -2.4663376720    0.3367721863
H         1.3319489736    1.1533789069   -1.2519926616
H         2.1638091267    1.1663928805    0.3098240301
H        -1.3320247013    1.1537266884   -1.2518356080
H        -2.1636554224    1.1665747240    0.3101044162
H         1.3320748683   -1.1537014570   -1.2518336518
H         2.1636262176   -1.1665803769    0.3101480619
H        -1.3319806785   -1.1533535329   -1.2520483842
H        -2.1638282932   -1.1663980675    0.3097745470
