14

C 1.606728 -0.681626 -0.081617
C 1.604033 0.682299 0.078832
C 0.488877 -1.623726 -0.080682
C 0.482414 1.620537 0.084181
C -0.609139 -1.572949 0.747623
C -0.613031 1.572480 -0.747330
C -1.541839 -1.750133 1.554991
C -1.542989 1.751812 -1.557550
H 2.588508 -1.166493 -0.207170
H 2.584281 1.171788 0.199578
H 0.587458 -2.515439 -0.726944
H 0.576601 2.507204 0.738080
H -2.351006 -1.882282 2.276398
H -2.349660 1.886696 -2.281296
